<?xml version="1.0" encoding="ISO-8859-1"?>
<febio_spec version="4.0">
  <Mesh>
    <Nodes name="heart_nodes">
      <node id="1">85.001474,61.244968,42.503631</node>
      <node id="2">92.504551,53.740560,49.993699</node>
      <node id="3">97.500619,82.498470,32.499919</node>
      <node id="4">94.995872,62.504255,110.003764</node>
      <node id="5">73.750320,57.505454,42.502262</node>
      <node id="6">89.995842,92.501784,109.995360</node>
      <node id="7">86.254251,101.249758,99.999106</node>
      <node id="8">104.996705,80.005916,69.999252</node>
      <node id="9">86.247927,49.998296,60.002576</node>
      <node id="10">113.751768,87.501997,82.502085</node>
      <node id="11">100.010363,89.998033,112.497521</node>
      <node id="12">102.496062,76.252981,35.005463</node>
      <node id="13">102.499449,66.245935,47.496011</node>
      <node id="14">111.253148,90.003596,85.002628</node>
      <node id="15">64.996780,52.501123,80.000565</node>
      <node id="16">72.501058,73.754217,122.501082</node>
      <node id="17">81.253285,60.000327,27.501399</node>
      <node id="18">72.503055,63.742949,117.498453</node>
      <node id="19">103.747724,74.996909,92.498669</node>
      <node id="20">101.257234,73.745810,37.504685</node>
<!-- ... 80 like lines cut -->
    </Nodes>
    <Elements type="tet4" name="myocardium">
      <elem id="1">2714,3374,4641,4151</elem>
      <elem id="2">3733,2046,710,2878</elem>
      <elem id="3">1731,3695,5314,3684</elem>
      <elem id="4">3887,280,4298,2930</elem>
      <elem id="5">825,1426,5205,6111</elem>
      <elem id="6">3385,6510,1201,1998</elem>
      <elem id="7">6200,1168,4396,1464</elem>
      <elem id="8">2208,3185,2400,5830</elem>
      <elem id="9">6485,3334,3502,370</elem>
      <elem id="10">1562,266,5711,1516</elem>
      <elem id="11">2271,5618,4755,4143</elem>
      <elem id="12">257,3753,3739,2127</elem>
      <elem id="13">4966,6196,1727,2208</elem>
      <elem id="14">2149,5566,519,5973</elem>
      <elem id="15">5167,3222,3890,5962</elem>
      <elem id="16">5132,1846,336,4390</elem>
      <elem id="17">972,587,6548,3160</elem>
      <elem id="18">4339,1449,678,419</elem>
      <elem id="19">2363,25,2801,2165</elem>
      <elem id="20">3512,3930,2057,3035</elem>
<!-- ... 80 like lines cut -->
    </Elements>
  </Mesh>
  <Material>
    <material id="1" name="myocardium" type="Holzapfel-Gasser-Ogden">
      <c>0.23</c>
      <k1>0.9</k1>
      <k2>5.0</k2>
      <kappa>0.226</kappa>
      <K>100.0</K>
    </material>
  </Material>
</febio_spec>
