<?xml version="1.0" encoding="ISO-8859-1"?>
<febio_spec version="4.0">
  <Module type="solid"/>

  <Control>
    <time_steps>100</time_steps>
    <step_size>0.01</step_size>
    <solver type="solid">
      <symmetric_stiffness>non-symmetric</symmetric_stiffness>
      <equation_scheme>staggered</equation_scheme>
    </solver>
  </Control>

  <Material>
    <material id="1" name="myocardium" type="Holzapfel-Gasser-Ogden">
      <c>0.059</c>
      <k1>18.472</k1>
      <k2>16.026</k2>
      <kappa>0.226</kappa>
      <K>1000.0</K>
    </material>
  </Material>

  <Boundary>
    <bc name="base_fix" type="zero displacement">
      <x_dof>1</x_dof>
      <y_dof>1</y_dof>
      <z_dof>1</z_dof>
    </bc>
  </Boundary>

  <Loads>
    <surface_load name="endocardial_pressure" type="pressure">
      <pressure lc="1">1.0</pressure>
    </surface_load>
  </Loads>

</febio_spec>
